test/data/spanish_feeders/Feeder_1.dss
clear
new circuit.feeder1
edit Vsource.Source bus1=31 basekv=0.42 pu=1 phases=3 ISC3=9000  ISC1=5000
! edit Vsource.Source bus1=source basekv=22 pu=1.0001 phases=3 ISC3=9000  ISC1=5000 ! only uncomment if you want to include the transfomer
!-- Linecodes ------------------------------------------------------------------------------------------------------
redirect linecode.txt
!-- Loadshapes ------------------------------------------------------------------------------------------------------
redirect Loadshape.txt
! -TRFRMS-----------------------------------------------------------------------------------------------------------------
! The transformer is commented out for an LV feeder analysis. You can uncomment but uncomment the Vsource line above
! New line.mv Bus1=sourcebus.1.2.3 Bus2=1.1.2.3 phases=3 Linecode=101 Length=5 Units=m
! New Transformer.td401346 windings=2 Buses=[1 31.1.2.3.4] Conns=[DELTA WYE] kVs=[22.0 0.42] kVAs=[630.0 630.0] XHL=4.0 phases=3 sub=y 
New Reactor.Yngrnd phases=1 bus1=31.4 bus2=31.0 R=5 X=0.01 
! -LINES-----------------------------------------------------------------------------------------------------------------
New Line.1228_5 Bus1=1228_5.1.2.3.4 Bus2=1228_6.1.2.3.4 phases=4 linecode=250 Length=0.082 Units=m
New Line.1228_2 Bus1=1228_2.1.2.3.4 Bus2=1228_3.1.2.3.4 phases=4 linecode=250 Length=0.085 Units=m
New Line.1228_44 Bus1=1228_44.1.2.3.4 Bus2=1228_45.1.2.3.4 phases=4 linecode=250 Length=4.63 Units=m
New Line.1228_36 Bus1=1228_36.1.2.3.4 Bus2=1228_37.1.2.3.4 phases=4 linecode=250 Length=0.081 Units=m
New Line.1228_4 Bus1=1228_4.1.2.3.4 Bus2=1228_5.1.2.3.4 phases=4 linecode=250 Length=0.106 Units=m
New Line.1226_1 Bus1=1226_1.1.2.3.4 Bus2=1226_2.1.2.3.4 phases=4 linecode=250 Length=1.309 Units=m
New Line.1228_42 Bus1=1228_42.1.2.3.4 Bus2=1228_43.1.2.3.4 phases=4 linecode=250 Length=5.077 Units=m
New Line.1228_40 Bus1=1228_40.1.2.3.4 Bus2=1228_41.1.2.3.4 phases=4 linecode=250 Length=0.092 Units=m
New Line.1228_14 Bus1=1228_14.1.2.3.4 Bus2=1228_15.1.2.3.4 phases=4 linecode=250 Length=1.529 Units=m
New Line.1228_34 Bus1=1228_34.1.2.3.4 Bus2=1228_35.1.2.3.4 phases=4 linecode=250 Length=0.103 Units=m
New Line.1228_21 Bus1=1228_21.1.2.3.4 Bus2=1228_22.1.2.3.4 phases=4 linecode=250 Length=2.012 Units=m
New Line.1228_22 Bus1=1228_22.1.2.3.4 Bus2=1228_23.1.2.3.4 phases=4 linecode=250 Length=1.822 Units=m
New Line.1228_17 Bus1=1228_17.1.2.3.4 Bus2=1228_18.1.2.3.4 phases=4 linecode=250 Length=2.779 Units=m
New Line.1228_11 Bus1=1228_11.1.2.3.4 Bus2=1228_12.1.2.3.4 phases=4 linecode=250 Length=0.092 Units=m
New Line.1228_37 Bus1=1228_37.1.2.3.4 Bus2=1228_38.1.2.3.4 phases=4 linecode=250 Length=0.081 Units=m
New Line.1226_0 Bus1=1228.1.2.3.4 Bus2=1226_1.1.2.3.4 phases=4 linecode=250 Length=13.647 Units=m
New Line.1228_3 Bus1=1228_3.1.2.3.4 Bus2=1228_4.1.2.3.4 phases=4 linecode=250 Length=0.078 Units=m
New Line.1228_23 Bus1=1228_23.1.2.3.4 Bus2=1228_24.1.2.3.4 phases=4 linecode=250 Length=13.162 Units=m
New Line.1228_31 Bus1=1228_31.1.2.3.4 Bus2=1228_32.1.2.3.4 phases=4 linecode=250 Length=0.108 Units=m
New Line.1228_12 Bus1=1228_12.1.2.3.4 Bus2=1228_13.1.2.3.4 phases=4 linecode=250 Length=11.646 Units=m
New Line.1228_13 Bus1=1228_13.1.2.3.4 Bus2=1228_14.1.2.3.4 phases=4 linecode=250 Length=0.908 Units=m
New Line.1228_29 Bus1=1228_29.1.2.3.4 Bus2=1228_30.1.2.3.4 phases=4 linecode=250 Length=9.054 Units=m
New Line.1228_1 Bus1=1228_1.1.2.3.4 Bus2=1228_2.1.2.3.4 phases=4 linecode=250 Length=0.1 Units=m
New Line.1228_39 Bus1=1228_39.1.2.3.4 Bus2=1228_40.1.2.3.4 phases=4 linecode=250 Length=0.095 Units=m
New Line.feeder1 Bus1=31.1.2.3.4 Bus2=31_1.1.2.3.4 phases=4 linecode=205 Length=4.34 Units=m
New Line.1228_32 Bus1=1228_32.1.2.3.4 Bus2=1228_33.1.2.3.4 phases=4 linecode=250 Length=0.102 Units=m
New Line.1228_27 Bus1=1228_27.1.2.3.4 Bus2=1228_28.1.2.3.4 phases=4 linecode=250 Length=1.713 Units=m
New Line.1228_0 Bus1=2684.1.2.3.4 Bus2=1228_1.1.2.3.4 phases=4 linecode=250 Length=0.707 Units=m
New Line.1228_8 Bus1=1228_8.1.2.3.4 Bus2=1228_9.1.2.3.4 phases=4 linecode=250 Length=0.072 Units=m
New Line.1228_26 Bus1=1228_26.1.2.3.4 Bus2=1228_27.1.2.3.4 phases=4 linecode=250 Length=1.452 Units=m
New Line.1228_43 Bus1=1228_43.1.2.3.4 Bus2=1228_44.1.2.3.4 phases=4 linecode=250 Length=2.457 Units=m
New Line.1228_16 Bus1=1228_16.1.2.3.4 Bus2=1228_17.1.2.3.4 phases=4 linecode=250 Length=1.516 Units=m
New Line.1228_9 Bus1=1228_9.1.2.3.4 Bus2=1228_10.1.2.3.4 phases=4 linecode=250 Length=0.078 Units=m
New Line.1228_6 Bus1=1228_6.1.2.3.4 Bus2=1228_7.1.2.3.4 phases=4 linecode=250 Length=0.091 Units=m
New Line.1228_24 Bus1=1228_24.1.2.3.4 Bus2=1228_25.1.2.3.4 phases=4 linecode=250 Length=7.261 Units=m
New Line.1228_41 Bus1=1228_41.1.2.3.4 Bus2=1228_42.1.2.3.4 phases=4 linecode=250 Length=12.724 Units=m
New Line.1228_18 Bus1=1228_18.1.2.3.4 Bus2=1228_19.1.2.3.4 phases=4 linecode=250 Length=1.943 Units=m
New Line.1228_35 Bus1=1228_35.1.2.3.4 Bus2=1228_36.1.2.3.4 phases=4 linecode=250 Length=0.106 Units=m
New Line.1228_25 Bus1=1228_25.1.2.3.4 Bus2=1228_26.1.2.3.4 phases=4 linecode=250 Length=1.723 Units=m
New Line.1228_30 Bus1=1228_30.1.2.3.4 Bus2=1228_31.1.2.3.4 phases=4 linecode=250 Length=0.198 Units=m
New Line.1228_19 Bus1=1228_19.1.2.3.4 Bus2=1228_20.1.2.3.4 phases=4 linecode=250 Length=2.022 Units=m
New Line.1228_38 Bus1=1228_38.1.2.3.4 Bus2=1228_39.1.2.3.4 phases=4 linecode=250 Length=0.08 Units=m
New Line.mv1 Bus1=source.1.2.3 Bus2=1.1.2.3 phases=3 linecode=101 Length=5.0 Units=m
New Line.1226 Bus1=1226_2.1.2.3.4 Bus2=1226.1.2.3.4 phases=4 linecode=250 Length=1.031 Units=m
New Line.cktbk1 Bus1=31_1.1.2.3.4 Bus2=2684.1.2.3.4 phases=4 linecode=102 Length=0.5 Units=m
New Line.1228 Bus1=1228_46.1.2.3.4 Bus2=1228.1.2.3.4 phases=4 linecode=250 Length=5.135 Units=m
New Line.1228_45 Bus1=1228_45.1.2.3.4 Bus2=1228_46.1.2.3.4 phases=4 linecode=250 Length=3.162 Units=m
New Line.1228_10 Bus1=1228_10.1.2.3.4 Bus2=1228_11.1.2.3.4 phases=4 linecode=250 Length=0.05 Units=m
New Line.1228_20 Bus1=1228_20.1.2.3.4 Bus2=1228_21.1.2.3.4 phases=4 linecode=250 Length=4.005 Units=m
New Line.1228_7 Bus1=1228_7.1.2.3.4 Bus2=1228_8.1.2.3.4 phases=4 linecode=250 Length=0.104 Units=m
New Line.1228_15 Bus1=1228_15.1.2.3.4 Bus2=1228_16.1.2.3.4 phases=4 linecode=250 Length=2.879 Units=m
New Line.1228_33 Bus1=1228_33.1.2.3.4 Bus2=1228_34.1.2.3.4 phases=4 linecode=250 Length=0.081 Units=m
New Line.1228_28 Bus1=1228_28.1.2.3.4 Bus2=1228_29.1.2.3.4 phases=4 linecode=250 Length=3.369 Units=m
! --LOADS-----------------------------------------------------------------------------------------------------------
New load.load303 Phases=1 Bus1=1228.3.4 kV=0.23 kW=1.0 PF=0.95 daily=shape_303
New load.load299 Phases=1 Bus1=1228.3.4 kV=0.23 kW=1.0 PF=0.95 daily=shape_299
New load.load341 Phases=1 Bus1=1228.2.4 kV=0.23 kW=1.0 PF=0.95 daily=shape_341
New load.load301 Phases=1 Bus1=1228.3.4 kV=0.23 kW=1.0 PF=0.95 daily=shape_301
New load.load336 Phases=1 Bus1=1228.1.4 kV=0.23 kW=1.0 PF=0.95 daily=shape_336
New load.load304 Phases=1 Bus1=1228.3.4 kV=0.23 kW=1.0 PF=0.95 daily=shape_304
New load.load342 Phases=1 Bus1=1228.1.4 kV=0.23 kW=1.0 PF=0.95 daily=shape_342
New load.load340 Phases=1 Bus1=1228.3.4 kV=0.23 kW=1.0 PF=0.95 daily=shape_340
New load.load296 Phases=1 Bus1=1228.2.4 kV=0.23 kW=1.0 PF=0.95 daily=shape_296
New load.load339 Phases=1 Bus1=1228.3.4 kV=0.23 kW=1.0 PF=0.95 daily=shape_339
New load.load300 Phases=1 Bus1=1228.2.4 kV=0.23 kW=1.0 PF=0.95 daily=shape_300
New load.load458 Phases=3 Bus1=1228.1.2.3.4 kV=0.4 kW=1.0 PF=0.95 daily=shape_458
New load.load302 Phases=1 Bus1=1228.2.4 kV=0.23 kW=1.0 PF=0.95 daily=shape_302
New load.load297 Phases=1 Bus1=1228.2.4 kV=0.23 kW=1.0 PF=0.95 daily=shape_297
New load.load344 Phases=1 Bus1=1228.2.4 kV=0.23 kW=1.0 PF=0.95 daily=shape_344
New load.load298 Phases=1 Bus1=1228.1.4 kV=0.23 kW=1.0 PF=0.95 daily=shape_298
New load.load378 Phases=3 Bus1=1228.1.2.3.4 kV=0.4 kW=1.0 PF=0.95 daily=shape_378
New load.load338 Phases=1 Bus1=1228.1.4 kV=0.23 kW=1.0 PF=0.95 daily=shape_338
New load.load337 Phases=1 Bus1=1228.1.4 kV=0.23 kW=1.0 PF=0.95 daily=shape_337
New load.load343 Phases=1 Bus1=1228.3.4 kV=0.23 kW=1.0 PF=0.95 daily=shape_343
New load.load295 Phases=1 Bus1=1228.1.4 kV=0.23 kW=1.0 PF=0.95 daily=shape_295
! --PF -----------------------------------------------------------------------------------------------------------
    set mode=Daily number=481 stepsize=60m
    Calcvoltagebases
    solve
    BusCoords Buscord_indexed.txt
    Plot circuit Power Max=1000 dots=n labels=n subs=y C1=black 1ph=3
    
